Version 4
SHEET 1 880 680
WIRE -576 -160 -592 -160
WIRE -48 -160 -576 -160
WIRE 0 -160 -48 -160
WIRE 64 -160 0 -160
WIRE -48 -112 -48 -160
WIRE 0 -112 0 -160
WIRE 64 -112 64 -160
WIRE -576 -48 -576 -160
WIRE -48 16 -48 -32
WIRE 0 16 0 -48
WIRE 0 16 -48 16
WIRE 64 16 64 -32
WIRE 64 16 0 16
WIRE 0 96 0 16
WIRE -576 192 -576 32
WIRE 0 192 0 176
WIRE 0 192 -576 192
WIRE 128 192 0 192
WIRE 160 192 128 192
WIRE 128 224 128 192
FLAG 128 224 0
SYMBOL res 48 -128 R0
WINDOW 0 40 103 Left 2
WINDOW 3 94 103 Left 2
SYMATTR InstName R1
SYMATTR Value 42.4115008234622
SYMBOL ind -32 -16 R180
WINDOW 0 36 80 Left 2
WINDOW 3 51 115 Left 2
SYMATTR InstName L1
SYMATTR Value 3.375e-07
SYMBOL current 0 96 R0
WINDOW 123 0 0 Left 2
WINDOW 39 0 0 Left 2
SYMATTR InstName I1
SYMATTR Value PWL file=salida.txt
SYMBOL voltage -576 -64 R0
SYMATTR InstName V1
SYMATTR Value 100
SYMBOL cap -16 -112 R0
WINDOW 3 71 10 Left 2
SYMATTR InstName C1
SYMATTR Value 1.8763182155988485e-08
TEXT -34 248 Left 2 !.tran 0.006
